/batch
/config,noeldb,1     ! force off writing results to database
*get,_wallstrt,active,,time,wall
! ANSYS input file written by Workbench version 2024 R1
! File used for geometry attach: C:\Users\feder\Desktop\FEM\PROJECT\Inventor\Trave_e_Pale_inventor_single.stp
/title,wbnew--Static Structural (A5)
! ****** Begin Custom Load Command Snippet ******
/COM, ACT Extensions:
/COM,     LSDYNA, 2024.1
/COM,     5f463412-bd3e-484b-87e7-cbc0a665e474, wbex
/COM,/COM,     ANSYSMotion, 2024.1
/COM,     20180725-3f81-49eb-9f31-41364844c769, wbex
/COM,
! ****** End   Custom Load Command Snippet ******
*DIM,_wb_ProjectScratch_dir,string,248
_wb_ProjectScratch_dir(1) = 'C:\Users\feder\AppData\Local\Temp\WB_feder_21396_2\_ProjectScratch\Scr18C4\'
*DIM,_wb_SolverFiles_dir,string,248
_wb_SolverFiles_dir(1) = 'C:\Users\feder\AppData\Local\Temp\WB_feder_21396_2\wbnew_files\dp0\SYS\MECH\'
*DIM,_wb_userfiles_dir,string,248
_wb_userfiles_dir(1) = 'C:\Users\feder\AppData\Local\Temp\WB_feder_21396_2\wbnew_files\user_files\'
/com,--- Data in consistent MKS units. See Solving Units in the help system for more information.
/units,MKS
/nopr
/wb,file,start              !  signify a WB generated input file
/prep7
! Turn off shape checking because checks already performed inside WB mesher.
! See help system for more information.
SHPP,OFF,,NOWARN
/nolist
etcon,set             ! allow ANSYS to choose best KEYOP's for 180x elements, resets any applicable keyopt to MAPDL defaults
/com,*********** Nodes for the whole assembly ***********
nblock,3,,7308
(1i9,3e20.9e3)
        1     3.717500000E+00    -4.500000000E-02    -4.400000000E-01
        2     3.717500000E+00    -3.500000000E-02    -4.500000000E-01
        3     3.717500000E+00    -4.500000000E-02    -4.600000000E-01
        4     3.717500000E+00    -5.481621888E-02    -4.519083624E-01
        5     3.717500000E+00    -3.792893219E-02    -4.429289322E-01
        6     3.717500000E+00    -3.792893219E-02    -4.570710678E-01
        7     3.717500000E+00    -5.207106781E-02    -4.570710678E-01
        8     3.717500000E+00    -5.207106781E-02    -4.429289322E-01
        9     3.675000000E+00    -4.500000000E-02    -4.400000000E-01
       10     3.675000000E+00    -5.500000000E-02    -4.500000000E-01
       11     3.675000000E+00    -4.500000000E-02    -4.600000000E-01
       12     3.675000000E+00    -3.500000000E-02    -4.500000000E-01
       13     3.675000000E+00    -5.207106781E-02    -4.429289322E-01
       14     3.675000000E+00    -5.207106781E-02    -4.570710678E-01
       15     3.675000000E+00    -3.792893219E-02    -4.570710678E-01
       16     3.675000000E+00    -3.792893219E-02    -4.429289322E-01
       17     4.000000000E+00    -4.500000000E-02    -4.400000000E-01
       18     4.000000000E+00    -3.500000000E-02    -4.500000000E-01
       19     4.000000000E+00    -4.500000000E-02    -4.600000000E-01
       20     4.000000000E+00    -5.481621888E-02    -4.519083624E-01
! ... 6625 like lines cut
/wb,elem,start            !  set before creation of elements
/com,*********** Elements for Body 1 "Trave_e_Pale_inventor_single-FreeParts|Solid1" ***********
et,1,187
eblock,19,solid,,3455
(19i9)
        1        1        1        1        0        0        0        0       10        0        1       61      864      465      982     1439     4624     1438     1441
     6144     4632
        1        1        1        1        0        0        0        0       10        0        2      463      464      885      982     4615     4619     4616     4618
     4621     6219
        1        1        1        1        0        0        0        0       10        0        3      462      889      982      975     4608     6237     4614     4612
     6236     6488
        1        1        1        1        0        0        0        0       10        0        4      462      982      889      463     4614     6237     4608     4605
     4618     4617
        1        1        1        1        0        0        0        0       10        0        5      889      957      982      975     6234     6463     6237     6236
     6462     6488
        1        1        1        1        0        0        0        0       10        0        6      463      889      464      982     4617     4620     4615     4618
     6237     4621
        1        1        1        1        0        0        0        0       10        0        7      909      967      981      969     6325     6483     6327     6326
     6481     6484
        1        1        1        1        0        0        0        0       10        0        8       26       80       30      981     1245     1263     1244     1248
     1565     1267
        1        1        1        1        0        0        0        0       10        0        9       26       30      909      981     1244     1265     1246     1248
     1267     6327
        1        1        1        1        0        0        0        0       10        0       10      907      909      981      969     6317     6327     6320     6319
     6326     6484
! ... 6891 like lines cut
!Material Id = {9562D2DD-0CBB-405A-BCCC-C5A36A0D63E5}
/wb,elem,end               !  done creating elements
/com,*********** Send User Defined Coordinate System(s) ***********
csys,0
toffst,273.15,  ! Temperature offset from absolute zero
/com,*********** Set Reference Temperature ***********
tref,22.
/wb,mat,start              !  starting to send materials
/com,*********** Send Materials ***********
Temperature = 'TEMP' ! Temperature
MP,DENS,1,7850,	! kg m^-3
MP,ALPX,1,1.2e-05,	! C^-1
MP,C,1,434,	! J kg^-1 C^-1
MP,KXX,1,60.5,	! W m^-1 C^-1
MP,RSVX,1,1.7e-07,	! kg m^3 A^-2 s^-3
MP,EX,1,200000000000,	! Pa
MP,NUXY,1,0.3,
MP,MURX,1,10000,
MP,UVID,1,20831839-0b2f-4106-96e9-6c9fc94d3f75
MP,UMID,1,59002a79-71c2-428e-906b-55d7dbee100e

/wb,mat,end                !  done sending materials
!************************* Model Summary ********************
!Trave_e_Pale_inventor_single-FreeParts|Solid1,	Structural Steel,	matid,	1
!************************* End Model Summary ********************
! get the diagonal of the bounding box. Needed later for other things
*get,_xmin,node,,mnloc,x
*get,_ymin,node,,mnloc,y
*get,_zmin,node,,mnloc,z
*get,_xmax,node,,mxloc,x
*get,_ymax,node,,mxloc,y
*get,_zmax,node,,mxloc,z
_ASMDIAG=(_xmax-_xmin)*(_xmax-_xmin)+(_ymax-_ymin)*(_ymax-_ymin)+(_zmax-_zmin)*(_zmax-_zmin)
_ASMDIAG=SQRT(_ASMDIAG)
/wb,contact,start          !  starting to send contact
/wb,contact,end            !  done creating contacts
/golist
/wb,load,start             !  starting to send loads
/com,*********** Fixed Supports ***********
CMBLOCK,_FIXEDSU,NODE,       48
(8i10)
        82        99       238       351       371       392       412       432
       508       664       775       835       837       838       861       862
      1574      1576      1577      1736      1737      1739      2832      2834
      2835      3773      3775      3776      3777      3956      3957      3959
      3961      3962      4130      4131      4133      4134      4295      4298
      4299      4300      4429      4430      4849      5484      5991      6119

cmsel,s,_FIXEDSU
d,all,all
nsel,all
/com,*********** Define Force Using Surface Effect Elements ***********
local,12,0,0.,0.,0.,0.,0.,0.
csys,0
et,2,154
mat,2
eblock,10,,,45
(15i9)
     5430        2        2        2       12      469      640      633      633     4660     5361      633     4658
     5431        2        2        2       12      469      641      640      640     4661     5389      640     4660
     5432        2        2        2       12      230      641      872      872     2780     5394      872     2782
     5433        2        2        2       12      222      874      634      634     2717     5368      634     2716
     5434        2        2        2       12      634      874      873      873     5368     6183      873     5367
     5435        2        2        2       12      469      634      873      873     4659     5367      873     4664
     5436        2        2        2       12      469      633      634      634     4658     5360      634     4659
     5437        2        2        2       12      640      224      633      633     2728     2726      633     5361
     5438        2        2        2       12      225      233      636      636     2732     2797      636     2736
     5439        2        2        2       12      224      232      635      635     2723     2788      635     2727
     5440        2        2        2       12      641      871      872      872     5393     6179      872     5394
     5441        2        2        2       12      232      224      640      640     2723     2728      640     2789
     5442        2        2        2       12      469      871      641      641     4663     5393      641     4661
     5443        2        2        2       12      635      232      642      642     2788     2790      642     5370
     5444        2        2        2       12      635      642      225      225     5370     2737      225     2735
     5445        2        2        2       12      225      642      233      233     2737     2798      233     2732
     5446        2        2        2       12      227     1096      235      235     2756     2817      235     2748
     5447        2        2        2       12      636      233      643      643     2797     2799      643     5374
     5448        2        2        2       12      228     1087      639      639     2766     5388      639     2759
     5449        2        2        2       12      636      643      226      226     5374     2744      226     2742
! ... 26 like lines cut
esel,s,type,,2
keyop,2,2,1                ! Apply load in local coordinate system
keyop,2,7,1                ! Use original area so load is constant in large deformation
esel,all
/com,*********** Define Force Using Surface Effect Elements ***********
local,13,0,0.,0.,0.,0.,0.,0.
csys,0
et,3,154
mat,3
eblock,10,,,47
(15i9)
     5475        3        3        3       13      348      753      341      341     3751     3703      341     3698
     5476        3        3        3       13      670      750      671      671     5533     5541      671     5525
     5477        3        3        3       13     1088      349      342      342     3765     3706      342     3712
     5478        3        3        3       13      746      347      340      340     3741     3689      340     3692
     5479        3        3        3       13      341      753      746      746     3703     5874      746     3701
     5480        3        3        3       13      345      749     1083     1083     3725     5892     1083     3729
     5481        3        3        3       13      744      345      338      338     3724     3671      338     3675
     5482        3        3        3       13      339     1084      744      744     3687     5869      744     3682
     5483        3        3        3       13      752      346      745      745     3734     3732      745     5870
     5484        3        3        3       13      753      347      746      746     3743     3741      746     5874
     5485        3        3        3       13      747      348      341      341     3750     3698      341     3702
     5486        3        3        3       13      342     1067      747      747     3711     5880      747     3708
     5487        3        3        3       13      751      345      744      744     3726     3724      744     5865
     5488        3        3        3       13      340      752      745      745     3693     5870      745     3691
     5489        3        3        3       13      745      346      339      339     3732     3679      339     3683
     5490        3        3        3       13      346     1084      339      339     3739     3687      339     3679
     5491        3        3        3       13      262      671      750      750     3047     5541      750     3049
     5492        3        3        3       13      670      749      750      750     5532     5888      750     5533
     5493        3        3        3       13      338     1083      742      742     3678     5863      742     3674
     5494        3        3        3       13      670      742      749      749     5530     5859      749     5532
! ... 28 like lines cut
esel,s,type,,3
keyop,3,2,1                ! Apply load in local coordinate system
keyop,3,7,1                ! Use original area so load is constant in large deformation
esel,all
/gst,on,on
fini
*get,_numnode,node,0,count
*get,_numelem,elem,0,count
*get, _MAXELEMNUM, elem, 0, NUM, MAX
*get, _MAXNODENUM, node, 0, NUM, MAX
*get, _MAXELEMTYPE, etyp, 0, NUM, MAX
*get, _MAXREALCONST, rcon, 0, NUM, MAX
/go
/wb,load,end               !  done creating loads
/com,--- Number of total nodes = %_numnode%
/com,--- Number of contact elements = 92
/com,--- Number of spring elements = 0
/com,--- Number of bearing elements = 0
/com,--- Number of solid elements = 3455
/com,--- Number of condensed parts = 0
/com,--- Number of total elements = %_numelem%
*get,_wallbsol,active,,time,wall
/com,****************************************************************************
/com,*************************    SOLUTION       ********************************
/com,****************************************************************************
/solu
antype,0                   ! static analysis
_thickRatio=  0     ! Ratio of thick parts in the model
eqsl,sparse,,,,,1
cntr,print,1               ! print out contact info and also make no initial contact an error
cncheck,dmp		!	Enable program controlled contact splitting for distributed memory parallel run
dmpoption,emat,no             ! Don't combine emat file for DANSYS
dmpoption,esav,no             ! Don't combine esav file for DANSYS
nldiag,cont,iter           ! print out contact info each equilibrium iteration
rescontrol,,none                 ! Do not keep any restart files
/com,****************************************************
/com,******************* SOLVE FOR LS 1 OF 1 ****************
esel,s,type,,2
nsle
sfe,all,1,pres,1,0.
sfe,all,2,pres,1,0.
sfe,all,3,pres,1,44444.4444444311
esel,s,type,,3
nsle
sfe,all,1,pres,1,0.
sfe,all,2,pres,1,0.
sfe,all,3,pres,1,37037.0370370259
nsel,all
esel,all
/nopr
/gopr
nsub,1,1,1
time,1.
outres,erase
outres,all,none
outres,nsol,all,
outres,rsol,all
outres,eangl,all
outres,etmp,all
outres,veng,all
outres,strs,all,
outres,epel,all,
outres,eppl,all,
outres,cont,all,
! *********** WB SOLVE COMMAND ***********
! check interactive state
*get,ANSINTER_,active,,int
*if,ANSINTER_,ne,0,then
/eof
*endif
solve
/com *************** Write FE CONNECTORS ********* 
CEWRITE,file,ce,,INTE
/com,****************************************************
/com,*************** FINISHED SOLVE FOR LS 1 *************
*get,_wallasol,active,,time,wall
/nopr
*get,_numnode,node,0,count
*get,_numelem,elem,0,count
*get, _MAXELEMNUM, elem, 0, NUM, MAX
*get, _MAXNODENUM, node, 0, NUM, MAX,,,INTERNAL
*get, _MAXELEMTYPE, etyp, 0, NUM, MAX
*get, _MAXREALCONST, rcon, 0, NUM, MAX
*get,_NSOLTHREADS,active,0,ntfs
*get,_NSOLPROCESSES,active,0,npfs
/gopr
/post1
xmlo,ENCODING,ISO-8859-1
xmlo,parm
/xml,parm,xml
fini
/gopr
*get,_walldone,active,,time,wall
_preptime=(_wallbsol-_wallstrt)*3600
_solvtime=(_wallasol-_wallbsol)*3600
_posttime=(_walldone-_wallasol)*3600
_totaltim=(_walldone-_wallstrt)*3600
*get,_dlbratio,active,0,solu,dlbr
*get,_combtime,active,0,solu,comb
*get,_ssmode,active,0,solu,ssmm
*get,_ndofs,active,0,solu,ndof
*get,_sol_end_time,active,0,set,time
*if,_sol_end_time,eq,1.000000,then
/fclean				!clean distributed files
*endif
/com,--- Total number of nodes = %_numnode%
/com,--- Total number of elements = %_numelem%
/com,--- Element load balance ratio = %_dlbratio%
/com,--- Time to combine distributed files = %_combtime%
/com,--- Sparse memory mode = %_ssmode%
/com,--- Number of DOF = %_ndofs%
/wb,file,end               ! done with WB generated input
